 25
MDL molfile
Ag                  1.34550000   -0.06290000    1.86870000
 Au                 2.22320000   -2.43720000    0.53610000
Ag                 -0.70790000   -1.51530000    0.58660000
Ag                 -0.90660000    1.55500000    0.47880000
 Au                 2.62040000    2.23150000    1.21330000
 Au                 3.83090000   -0.10070000    0.94330000
 Au                -0.33210000   -4.12020000   -0.72220000
 Au                -2.96230000   -3.16710000   -0.56800000
 Au                -2.72690000   -0.00040000   -0.69020000
Ag                 -3.00960000    2.76550000   -0.84970000
Ag                 -0.52180000    3.99040000   -1.25950000
 Au                 3.28510000   -0.32140000   -1.75350000
 Au                 1.40890000    2.00270000   -1.58920000
 Au                -1.07500000    1.46380000   -2.51280000
 Au                -0.99780000   -1.54440000   -2.57040000
 Au                 1.26170000   -2.37040000   -2.09030000
 Au                 0.96550000    0.02890000   -3.57710000
 Au                -1.11670000   -0.54040000    3.00430000
 Au                -3.28220000    1.25980000    1.74150000
 Au                -3.50680000   -1.43980000    1.70540000
 Au                 0.66240000   -2.76600000    3.09740000
 Au                -1.76300000   -3.64350000    2.24320000
 Au                -1.67490000    3.85100000    1.79830000
 Au                 0.21680000    2.39800000    2.93680000
 Au                 0.21680000    2.39800000    2.93680000